Version 4
SHEET 1 1500 688
WIRE 464 -256 464 -352
WIRE 464 -256 160 -256
WIRE -576 -224 -576 -256
WIRE 160 -160 160 -256
WIRE 208 -160 160 -160
WIRE 464 -160 464 -256
WIRE 512 -160 464 -160
WIRE 160 -144 160 -160
WIRE 464 -144 464 -160
WIRE 112 -128 48 -128
WIRE 416 -128 352 -128
WIRE -576 -96 -576 -144
WIRE 208 -96 208 -160
WIRE 208 -96 160 -96
WIRE 512 -96 512 -160
WIRE 512 -96 464 -96
WIRE -576 48 -576 16
WIRE 160 48 160 -48
WIRE 464 48 464 -48
WIRE 464 48 160 48
WIRE 768 48 464 48
WIRE 896 48 768 48
WIRE 768 112 768 48
WIRE 464 128 464 48
WIRE -576 176 -576 128
WIRE 544 176 464 176
WIRE 48 208 48 -128
WIRE 48 208 -64 208
WIRE 416 208 48 208
WIRE 464 256 464 224
WIRE 768 256 768 192
WIRE 768 256 720 256
WIRE 816 256 768 256
WIRE 816 288 816 256
WIRE -576 304 -576 272
WIRE 512 304 464 304
WIRE 720 304 720 256
WIRE 352 336 352 -128
WIRE 352 336 -64 336
WIRE 416 336 352 336
WIRE 464 400 464 352
WIRE 512 400 512 304
WIRE 512 400 464 400
WIRE 544 400 544 176
WIRE 544 400 512 400
WIRE 720 400 720 368
WIRE 720 400 544 400
WIRE 816 400 816 368
WIRE 816 400 720 400
WIRE -576 432 -576 384
WIRE 464 432 464 400
FLAG 464 432 0
FLAG -576 -96 0
FLAG 896 48 Y
IOPIN 896 48 Out
FLAG -576 -256 VDD
IOPIN -576 -256 Out
FLAG 464 -352 VDD
IOPIN 464 -352 In
FLAG -576 272 B
IOPIN -576 272 Out
FLAG -576 432 0
FLAG -576 16 A
IOPIN -576 16 Out
FLAG -576 176 0
FLAG -64 208 A
IOPIN -64 208 In
FLAG -64 336 B
IOPIN -64 336 In
SYMBOL voltage -576 -240 R0
WINDOW 123 0 0 Left 2
WINDOW 39 0 0 Left 2
SYMATTR InstName VDD
SYMATTR Value 5
SYMBOL voltage -576 288 R0
WINDOW 123 0 0 Left 2
WINDOW 39 0 0 Left 2
SYMATTR InstName VB
SYMATTR Value PULSE(5 0 100n 20n 20n 480n 1u 5)
SYMBOL cap 704 304 R0
SYMATTR InstName C1
SYMATTR Value 10p
SYMBOL res 800 272 R0
SYMATTR InstName R1
SYMATTR Value 200k
SYMBOL voltage -576 32 R0
WINDOW 123 0 0 Left 2
WINDOW 39 0 0 Left 2
SYMATTR InstName VA
SYMATTR Value PULSE(5 0 100n 20n 20n 230n 500n 5)
SYMBOL pmos4 112 -48 M180
WINDOW 0 51 80 Left 2
WINDOW 3 52 23 Invisible 2
SYMATTR InstName X1
SYMATTR Value pmos_t1
SYMATTR Prefix X
SYMBOL res 752 96 R0
SYMATTR InstName Rsw
SYMATTR Value {R}
SYMBOL pmos4 416 -48 M180
WINDOW 0 51 79 Left 2
WINDOW 3 52 23 Invisible 2
SYMATTR InstName X2
SYMATTR Value pmos_t1
SYMATTR Prefix X
SYMBOL nmos4 416 128 R0
WINDOW 0 53 82 Left 2
WINDOW 3 53 23 Invisible 2
SYMATTR InstName X3
SYMATTR Value nmos_t1
SYMATTR Prefix X
SYMBOL nmos4 416 256 R0
WINDOW 0 53 82 Left 2
WINDOW 3 53 23 Invisible 2
SYMATTR InstName X4
SYMATTR Value nmos_t1
SYMATTR Prefix X
TEXT -104 488 Left 2 !.lib '../../lib/cfg.lib'\n.tran 2u\n.param R = 1m\n.meas RMS-p-current RMS (Ix(X1:G)+Ix(X1:D)+Ix(X1:S)+Ix(X1:B))\n.meas RMS-n-current RMS (Ix(X4:G)+Ix(X4:D)+Ix(X4:S)+Ix(X4:B))
