*------------------------------------------------------------------------------
*
*------------------------------------------------------------------------------

.model D1N4733 D(Is=1.214f Rs=1.078 Ikf=0 N=1 Xti=3 Eg=1.11
 		 +Cjo=185p M=.3509 Vj=.75 Fc=.5 Isr=2.601n Nr=2 Bv=5.1 Ibv=.70507
		 +Nbv=.74348 Ibvl=4.8274m Nbvl=6.7393 Tbv1=176.471u)
