Version 4
SHEET 1 1144 680
WIRE 112 304 -32 304
WIRE 256 304 192 304
WIRE 304 304 256 304
WIRE 256 352 256 304
WIRE -32 368 -32 304
WIRE -32 480 -32 448
WIRE 256 480 256 416
WIRE 256 480 -32 480
WIRE -32 528 -32 480
FLAG -32 528 0
FLAG 304 304 OUT
IOPIN 304 304 Out
SYMBOL zener 272 416 R180
WINDOW 0 24 64 Left 2
WINDOW 3 24 0 Left 2
SYMATTR InstName D1
SYMATTR Value BZX84C10L
SYMBOL res 208 288 R90
WINDOW 0 0 56 VBottom 2
WINDOW 3 32 56 VTop 2
SYMATTR InstName R1
SYMATTR Value 1k
SYMBOL voltage -32 352 R0
WINDOW 123 0 0 Left 2
WINDOW 39 0 0 Left 2
SYMATTR InstName V1
SYMATTR Value PWL(0 0 10m 15)
TEXT 270 544 Left 2 !.tran 20m
